8
100 degree
C    0.000000   0.000000   0.000000
Cl   0.667244  -1.613211  -0.024234
N    0.649292   1.077214  -0.000000
H    1.658643   0.916580   0.005313
C   -1.494421  -0.000000  -0.000000
Cl  -2.161664   0.256266  -1.592912
N   -2.143713  -0.187058   1.060847
H   -3.153064  -0.153933   0.903577
