10
120 degree
C    0.000000   0.000000   0.000000
F    0.532278  -1.229528   0.145649
C    0.774543   1.078774  -0.000000
H    1.850119   0.987212   0.050719
H    0.318441   2.053412  -0.087386
C   -1.473805  -0.000000  -0.000000
F   -2.006083   0.740902  -0.991976
C   -2.248348  -0.539387   0.934246
H   -3.323924  -0.449681   0.880311
H   -1.792245  -1.102384   1.734614
