10
0 degree
C    0.000000   0.000000   0.000000
F    0.519070  -1.236977   0.000000
C    0.807504   1.058227  -0.000000
H    1.878563   0.917951   0.000000
H    0.401468   2.057294  -0.000000
C   -1.473346  -0.000000  -0.000000
F   -1.992416  -1.236977   0.000000
C   -2.280850   1.058227  -0.000000
H   -3.351909   0.917951  -0.000000
H   -1.874814   2.057294  -0.000000
