10
0 degree
C    0.000000   0.000000   0.000000
H    0.471726  -0.977848   0.000000
C    0.793044   1.079685  -0.000000
H    1.870120   0.973935  -0.000000
H    0.394766   2.087102  -0.000000
C   -1.467998  -0.000000  -0.000000
H   -1.939724  -0.977848   0.000000
C   -2.261042   1.079685  -0.000000
H   -3.338118   0.973935  -0.000000
H   -1.862764   2.087102  -0.000000
