10
40 degree
C    0.000000   0.000000   0.000000
H    0.492690  -0.968234  -0.027000
C    0.749531   1.109288  -0.000000
H    1.830796   1.055482   0.018635
H    0.292741   2.091330  -0.034093
C   -1.465738  -0.000000  -0.000000
H   -1.958429  -0.759061  -0.601689
C   -2.215268   0.849762   0.713042
H   -3.296533   0.820524   0.664181
H   -1.758477   1.580132   1.370407
