10
20 degree
C    0.000000   0.000000   0.000000
Br   0.869974  -1.657932   0.232567
C    0.735957   1.119426  -0.000000
H    1.811171   1.083804   0.106111
H    0.260489   2.078649  -0.159176
C   -1.472015  -0.000000  -0.000000
Br  -2.341990  -1.478406  -0.785581
C   -2.207970   1.051919   0.382862
H   -3.283185   1.054738   0.270966
H   -1.732502   1.898854   0.860509
