8
60 degree
C    0.000000   0.000000   0.000000
Cl   0.690080  -1.605758   0.032649
N    0.644454   1.080823  -0.000000
H    1.653798   0.920984   0.018307
C   -1.493771  -0.000000  -0.000000
Cl  -2.183851  -0.774601  -1.406953
N   -2.138224   0.540412   0.936021
H   -3.147569   0.476348   0.788442
