8
60 degree
C    0.000000   0.000000   0.000000
F    0.479932  -1.259124  -0.039374
N    0.696639   1.038168  -0.000000
H    1.693427   0.811463  -0.012332
C   -1.488977  -0.000000  -0.000000
F   -1.968909  -0.663663  -1.070745
N   -2.185614   0.519085   0.899081
H   -3.182403   0.395051   0.708915
