8
104 degree
C    0.000000   0.000000   0.000000
Br   0.719564  -1.766913  -0.028378
N    0.653354   1.073387  -0.000000
H    1.663505   0.922944   0.009721
C   -1.492807   0.000000  -0.000000
Br  -2.212371   0.399928  -1.721291
N   -2.146161  -0.259680   1.041502
H   -3.156312  -0.213852   0.897880
