8
35 degree
C    0.000000   0.000000   0.000000
H    0.468004  -0.990550  -0.024712
N    0.657544   1.094262  -0.000000
H    1.660251   0.891736   0.002801
C   -1.484530  -0.000000  -0.000000
H   -1.952536  -0.825585  -0.547914
N   -2.142074   0.896367   0.627643
H   -3.144781   0.732075   0.509184
