8
97 degree
C    0.000000   0.000000   0.000000
F    0.493277  -1.253006  -0.010040
N    0.682591   1.046828  -0.000000
H    1.683639   0.840712   0.000539
C   -1.492094  -0.000000  -0.000000
F   -1.985373   0.142764  -1.244887
N   -2.174686  -0.127573   1.039026
H   -3.175733  -0.101906   0.834514
