10
108 degree
C    0.000000   0.000000   0.000000
Br   0.794018  -1.713398  -0.047334
C    0.751323   1.102037  -0.000000
H    1.831608   1.055688  -0.009038
H    0.265554   2.070998   0.006856
C   -1.473280  -0.000000  -0.000000
Br  -2.267299   0.484444  -1.644168
C   -2.224603  -0.340546   1.048100
H   -3.304888  -0.334821   1.001224
H   -1.738835  -0.633447   1.971756
