8
60 degree
C    0.000000   0.000000   0.000000
H    0.474155  -0.987502  -0.043142
N    0.646341   1.099927  -0.000000
H    1.651548   0.909696  -0.008161
C   -1.484795  -0.000000  -0.000000
H   -1.958950  -0.531114  -0.833629
N   -2.131135   0.549964   0.952565
H   -3.136342   0.447782   0.791900
