8
40 degree
C    0.000000   0.000000   0.000000
F    0.489034  -1.254673  -0.013361
N    0.692967   1.041735  -0.000000
H    1.689731   0.815337   0.003788
C   -1.490289  -0.000000  -0.000000
F   -1.979324  -0.969722  -0.796255
N   -2.183256   0.798011   0.669620
H   -3.180021   0.627017   0.521192
