10
100 degree
C    0.000000   0.000000   0.000000
Br   0.786708  -1.713857  -0.106678
C    0.751543   1.101820  -0.000000
H    1.831599   1.055551  -0.025193
H    0.265758   2.070276   0.030711
C   -1.471341  -0.000000  -0.000000
Br  -2.258049   0.192551  -1.706344
C   -2.222885  -0.191332   1.085081
H   -3.302940  -0.208108   1.035140
H   -1.737100  -0.329258   2.044157
