10
106 degree
C    0.000000   0.000000   0.000000
Cl   0.726957  -1.573600  -0.045150
C    0.744939   1.105595  -0.000000
H    1.825150   1.058861  -0.015999
H    0.257186   2.071878   0.013999
C   -1.477745  -0.000000  -0.000000
Cl  -2.204702   0.390334  -1.525087
C   -2.222684  -0.304740   1.062767
H   -3.302896  -0.307240   1.013434
H   -1.734930  -0.557624   1.995478
