8
160 degree
C    0.000000   0.000000   0.000000
H    0.474645  -0.982686   0.069670
N    0.616659   1.120317  -0.000000
H    1.625980   0.967373   0.054257
C   -1.472644  -0.000000  -0.000000
H   -1.947290   0.947228  -0.270709
N   -2.089306  -1.052755   0.383169
H   -3.098630  -0.890497   0.381775
