8
180 degree
C    0.000000   0.000000   0.000000
H    0.471836  -0.986533   0.000000
N    0.620974   1.118444  -0.000000
H    1.631246   0.961088  -0.000000
C   -1.470745  -0.000000  -0.000000
H   -1.942581   0.986533  -0.000000
N   -2.091719  -1.118444   0.000000
H   -3.101991  -0.961088  -0.000000
