10
180 degree
C    0.000000   0.000000   0.000000
H    0.491513  -0.969610   0.000000
C    0.739814   1.117526  -0.000000
H    1.821591   1.079478  -0.000000
H    0.272286   2.095540  -0.000000
C   -1.453204   0.000000  -0.000000
H   -1.944717   0.969610  -0.000000
C   -2.193018  -1.117526   0.000000
H   -3.274795  -1.079478  -0.000000
H   -1.725490  -2.095540   0.000000
