10
60 degree
C    0.000000   0.000000   0.000000
H    0.494976  -0.965656  -0.070818
C    0.739800   1.114129  -0.000000
H    1.821945   1.070642  -0.008137
H    0.270842   2.090874   0.010797
C   -1.468825   0.000000  -0.000000
H   -1.963801  -0.544158  -0.800874
C   -2.208625   0.557066   0.964863
H   -3.290770   0.528277   0.931272
H   -1.739667   1.054791   1.805350
