10
40 degree
C    0.000000   0.000000   0.000000
Cl   0.762568  -1.552354   0.076701
C    0.733384   1.118213  -0.000000
H    1.812862   1.078406   0.062934
H    0.242433   2.078024  -0.092396
C   -1.470190   0.000000  -0.000000
Cl  -2.232757  -1.139868  -1.056593
C   -2.203574   0.856598   0.718776
H   -3.283052   0.866556   0.644979
H   -1.712624   1.532463   1.406512
