8
80 degree
C    0.000000   0.000000   0.000000
Cl   0.662736  -1.617388  -0.019736
N    0.652662   1.074935  -0.000000
H    1.661419   0.909562   0.000346
C   -1.492505   0.000000  -0.000000
Cl  -2.155240  -0.300297  -1.589389
N   -2.145167   0.186663   1.058603
H   -3.153924   0.158286   0.895682
