10
80 degree
C    0.000000   0.000000   0.000000
F    0.521961  -1.239112  -0.101676
C    0.784001   1.071454  -0.000000
H    1.859882   0.970486  -0.036727
H    0.334545   2.051239   0.050665
C   -1.470124  -0.000000  -0.000000
F   -1.992086  -0.315302  -1.202631
C   -2.254125   0.186057   1.055177
H   -3.330006   0.132356   0.962120
H   -1.804669   0.406091   2.011279
