10
50 degree
C    0.000000   0.000000   0.000000
Cl   0.756221  -1.556338   0.037058
C    0.729884   1.119497  -0.000000
H    1.809924   1.084414   0.044332
H    0.230819   2.077507  -0.063350
C   -1.469353  -0.000000  -0.000000
Cl  -2.225575  -0.972013  -1.216039
C   -2.199238   0.719604   0.857580
H   -3.279277   0.731013   0.802209
H   -1.700172   1.286876   1.632176
