10
140 degree
C    0.000000   0.000000   0.000000
H    0.494122  -0.959937   0.127516
C    0.735367   1.118490  -0.000000
H    1.814377   1.082163   0.076833
H    0.271382   2.093964  -0.092475
C   -1.463184   0.000000  -0.000000
H   -1.957306   0.817317  -0.519356
C   -2.198551  -0.856810   0.718955
H   -3.277562  -0.779594   0.754461
H   -1.734567  -1.663506   1.275140
