10
60 degree
C    0.000000   0.000000   0.000000
Cl   0.742618  -1.565019   0.002703
C    0.734027   1.115516  -0.000000
H    1.815249   1.077199   0.024364
H    0.235913   2.075591  -0.035051
C   -1.469388  -0.000000  -0.000000
Cl  -2.212005  -0.780167  -1.356699
C   -2.203415   0.557757   0.966064
H   -3.284639   0.559700   0.920698
H   -1.705302   1.007439   1.815040
