8
75 degree
C    0.000000   0.000000   0.000000
Br   0.725382  -1.767775   0.012187
N    0.653295   1.073369  -0.000000
H    1.663392   0.919197   0.011348
C   -1.490505  -0.000000  -0.000000
Br  -2.215887  -0.445761  -1.710695
N   -2.143800   0.277807   1.036794
H   -3.153898   0.248866   0.884938
