10
180 degree
C    0.000000   0.000000   0.000000
Cl   0.742816  -1.568732   0.000000
C    0.779338   1.088071  -0.000000
H    1.855869   0.991531  -0.000000
H    0.336339   2.072691  -0.000000
C   -1.466188  -0.000000  -0.000000
Cl  -2.209004   1.568732  -0.000000
C   -2.245526  -1.088071  -0.000000
H   -3.322057  -0.991531  -0.000000
H   -1.802527  -2.072691   0.000000
