10
60 degree
C    0.000000   0.000000   0.000000
F    0.524200  -1.238654  -0.057922
C    0.782273   1.074179  -0.000000
H    1.858605   0.972708   0.003326
H    0.331170   2.054287   0.000971
C   -1.466786  -0.000000  -0.000000
F   -1.990985  -0.669488  -1.043745
C   -2.249059   0.537088   0.930266
H   -3.325392   0.489232   0.840726
H   -1.797957   1.027982   1.778580
