8
140 degree
C    0.000000   0.000000   0.000000
Cl   0.699240  -1.590951   0.063445
N    0.644102   1.084454  -0.000000
H    1.652257   0.924594   0.051938
C   -1.498101   0.000000  -0.000000
Cl  -2.197341   1.259516  -0.974047
N   -2.142203  -0.830737   0.697078
H   -3.150358  -0.674892   0.634109
