10
100 degree
C    0.000000   0.000000   0.000000
F    0.532078  -1.238629  -0.061708
C    0.779781   1.073721  -0.000000
H    1.855953   0.978575  -0.040690
H    0.326181   2.052237   0.044573
C   -1.474895  -0.000000  -0.000000
F   -2.006972   0.154315  -1.230528
C   -2.254677  -0.186452   1.057408
H   -3.330848  -0.210002   0.956641
H   -1.801077  -0.312475   2.028798
