8
140 degree
C    0.000000   0.000000   0.000000
H    0.482239  -0.974527   0.117029
N    0.606959   1.124118  -0.000000
H    1.615097   0.980867   0.089955
C   -1.478331  -0.000000  -0.000000
H   -1.960569   0.821761  -0.536757
N   -2.085289  -0.861121   0.722573
H   -3.093426  -0.693556   0.699411
