8
100 degree
C    0.000000   0.000000   0.000000
F    0.495883  -1.251466   0.001064
N    0.680197   1.048520  -0.000000
H    1.681739   0.845150   0.007100
C   -1.492430   0.000000  -0.000000
F   -1.988313   0.218352  -1.232270
N   -2.172627  -0.182076   1.032592
H   -3.174168  -0.139774   0.833543
