10
90 degree
C    0.000000   0.000000   0.000000
F    0.525047  -1.238888  -0.099363
C    0.783092   1.071595  -0.000000
H    1.858741   0.972550  -0.046777
H    0.333257   2.050851   0.059632
C   -1.472444  -0.000000  -0.000000
F   -1.997491  -0.099358  -1.238888
C   -2.255535  -0.000001   1.071595
H   -3.331185  -0.046777   0.972551
H   -1.805700   0.059629   2.050851
