10
101 degree
C    0.000000   0.000000   0.000000
H    0.497883  -0.966750  -0.015697
C    0.739942   1.111520  -0.000000
H    1.821759   1.063812  -0.003976
H    0.278873   2.092178   0.009897
C   -1.480098  -0.000000  -0.000000
H   -1.977983   0.169057  -0.951983
C   -2.220040  -0.212087   1.091098
H   -3.301857  -0.206886   1.043510
H   -1.758971  -0.389490   2.055627
